src/tests/data/grids/DGS/UnbalancedNetworkModel_Cables_606_v7.dgs
********************************************************************************
*
* DIgSILENT (R) DGS Export V1.8.4
* Copyright (C) DIgSILENT GmbH 2026. All rights reserved.
*
* DIgSILENT (C) PowerFactory V24.0.10.0
*
* Date:     09/14/2026 14:30
* Project:  UnbalancedNetworkModel_Cables (Study Case: Study Case)
*
********************************************************************************


$$General;FID(a:40);Descr(a:40);Val(a:255)
  1;Version;7.0


$$ComLdf;FID(a:40);OP(a:1);loc_name(a:80);fold_id(p);iopt_pq(i)
  2;C;Load Flow Calculation;;1


$$ElmCoup;FID(a:40);OP(a:1);loc_name(a:80);fold_id(p);typ_id(p);on_off(i);aUsage(a:4);nphase(i);nneutral(i)
  3;C;Switch;36;;1;cbk;3;1


$$ElmFeeder;FID(a:40);OP(a:1);loc_name(a:80);fold_id(p);obj_id(p);iorient(i);i_scale(i);Sset(r);icolor(i);outserv(i)
  4;C;RG60_LOHL650-632;;221;0;0;0;-15572290;0
  5;C;RG60_UregA;;218;0;0;0;-15572290;0
  6;C;RG60_UregB;;219;0;0;0;-1172706;0
  7;C;RG60_UregC;;220;0;0;0;-14636533;0


$$ElmLne;FID(a:40);OP(a:1);loc_name(a:80);fold_id(p);typ_id(p);dline(r);fline(r);GPScoords:MATRIX(a);nlnum(i);inAir(i)
  8;C;LC684-652;36;284;1;1;;1;0
  9;C;LC692-675;36;282;1;1;;1;0
  10;C;LOHL632-633;36;305;0.1524;1;;1;0
  11;C;LOHL632-645;36;307;0.1524;1;;1;0
  12;C;LOHL632-671;36;303;0.1016;1;;1;0
  13;C;LOHL632-671_a;36;303;0.1016;1;;1;0
  14;C;LOHL632-671_b;36;303;0.1016;1;;1;0
  15;C;LOHL632-671_c;36;303;0.1016;1;;1;0
  16;C;LOHL632-671_d;36;303;0.1016;1;;1;0
  17;C;LOHL632-671_e;36;303;0.1016;1;;1;0
  18;C;LOHL645-646;36;307;0.0914;1;;1;0
  19;C;LOHL650-632;36;303;0.6096;1;;1;0
  20;C;LOHL671-680;36;303;0.3048;1;;1;0
  21;C;LOHL671-684;36;307;0.0914;1;;1;0
  22;C;LOHL684-611;36;309;0.0914;1;;1;0


$$ElmLod;FID(a:40);OP(a:1);loc_name(a:80);fold_id(p);typ_id(p);mode_inp(a:6);slini(r);plini(r);qlini(r);coslini(r);pf_recap(i);scale0(r);i_scale(i);outserv(i);classif(a:40);i_sym(i);plinir(r);plinis(r);plinit(r);qlinir(r);qlinis(r);qlinit(r);phtech(a)
  23;C;Distributed Load 1;36;301;DEF;0.046241;0.04;0.0232;0.865031;0;1;1;0;;1;0.0034;0.0132;0.0234;0.002;0.0076;0.0136;3PH PH-E
  24;C;Distributed Load 2;36;301;DEF;0.046241;0.04;0.0232;0.865031;0;1;1;0;;1;0.0034;0.0132;0.0234;0.002;0.0076;0.0136;3PH PH-E
  25;C;Distributed Load 3;36;301;DEF;0.046241;0.04;0.0232;0.865031;0;1;1;0;;1;0.0034;0.0132;0.0234;0.002;0.0076;0.0136;3PH PH-E
  26;C;Distributed Load 4;36;301;DEF;0.046241;0.04;0.0232;0.865031;0;1;1;0;;1;0.0034;0.0132;0.0234;0.002;0.0076;0.0136;3PH PH-E
  27;C;Distributed Load 5;36;301;DEF;0.046241;0.04;0.0232;0.865031;0;1;1;0;;1;0.0034;0.0132;0.0234;0.002;0.0076;0.0136;3PH PH-E
  28;C;L611-YcI;36;295;DEF;0.187882;0.17;0.08;0.904818;0;1;1;0;;0;0;0;0;0;0;0;1PH PH-E
  29;C;L634-YcPQ;36;301;DEF;0.494064;0.4;0.29;0.809610;0;1;1;0;;1;0.16;0.12;0.12;0.11;0.09;0.09;3PH PH-E
  30;C;L645-YcPQ;36;296;DEF;0.211009;0.17;0.125;0.805651;0;1;1;0;;0;0;0;0;0;0;0;1PH PH-E
  31;C;L646-DcZ;36;299;DEF;0.265186;0.23;0.132;0.867313;0;1;1;0;;0;0;0;0;0;0;0;1PH PH-PH
  32;C;L652-YcZ;36;297;DEF;0.154207;0.128;0.086;0.830049;0;1;1;0;;0;0;0;0;0;0;0;1PH PH-E
  33;C;L671-DcPQ;36;291;DEF;1.330272;1.155;0.66;0.868243;0;1;1;0;;1;0.385;0.385;0.385;0.22;0.22;0.22;3PH-'D'
  34;C;L675-YcPQ;36;301;DEF;0.961297;0.843000;0.462;0.876939;0;1;1;0;;1;0.485;0.068;0.29;0.19;0.06;0.212;3PH PH-E
  35;C;L692-Dcl;36;298;DEF;0.227378;0.17;0.151;0.747651;0;1;1;0;;0;0;0;0;0;0;0;1PH PH-PH


$$ElmNet;FID(a:40);OP(a:1);loc_name(a:80);fold_id(p);frnom(r);pDiagram(p)
  36;C;Grid;;60;179
  37;C;Summary Grid;;50;


$$ElmShnt;FID(a:40);OP(a:1);loc_name(a:80);fold_id(p);systp(i);ctech(i);shtype(i);ushnm(r);mode_inp(a:6);qcapn(r);ncapx(i);ncapa(i);outserv(i);qrean(r);qtotn(r);tandc(r);fres(r);greaf0(r);grea(r);bcap(r);xrea(r);rrea(r);gparac(r);iswitch(i);imldc(a:2);usetp_mx(r);usetp_mn(r);qsetp_mx(r);qsetp_mn(r);iQorient(i);ilcph(i);chr_name(a:40);rpara(r);i_cont(i);cgnd(i)
  38;C;C611;36;0;7;2;4.16;DEF;0.1;1;1;0;0;0.1;0;0;0;0;17335.43;1.5;0;0;0;V;1.05;0.95;0;0;0;0;;0;0;0
  39;C;C675;36;0;2;2;4.16;DEF;0.6;1;1;0;0;0.6;0;0;0;0;34670.86;1.5;0;0;0;V;1.05;0.95;0;0;0;0;;0;0;0


$$ElmTerm;FID(a:40);OP(a:1);loc_name(a:80);fold_id(p);typ_id(p);systype(i);iUsage(i);uknom(r);unknom(r);iminus(i);outserv(i);GPSlat(r);GPSlon(r);vtarget(r)
  40;C;611;36;278;0;0;4.16;2.401777;0;0;0;0;1
  41;C;632;36;278;0;0;4.16;2.401777;0;0;0;0;1
  42;C;633;36;278;0;0;4.16;2.401777;0;0;0;0;1
  43;C;634;36;277;0;0;0.48;0.277128;0;0;0;0;1
  44;C;645;36;278;0;0;4.16;2.401777;0;0;0;0;1
  45;C;646;36;278;0;0;4.16;2.401777;0;0;0;0;1
  46;C;650;36;278;0;0;4.16;2.401777;0;0;0;0;1
  47;C;652;36;278;0;0;4.16;2.401777;0;0;0;0;1
  48;C;671;36;278;0;0;4.16;2.401777;0;0;0;0;1
  49;C;675;36;278;0;0;4.16;2.401777;0;0;0;0;1
  50;C;680;36;278;0;0;4.16;2.401777;0;0;0;0;1
  51;C;684;36;278;0;0;4.16;2.401777;0;0;0;0;1
  52;C;692;36;278;0;0;4.16;2.401777;0;0;0;0;1
  53;C;RG60;36;278;0;0;4.16;2.401777;0;0;0;0;1
  54;C;Terminal(1);36;;0;1;4.16;2.401777;0;0;0;0;1
  55;C;Terminal(2);36;;0;1;4.16;2.401777;0;0;0;0;1
  56;C;Terminal(3);36;;0;1;4.16;2.401777;0;0;0;0;1
  57;C;Terminal(4);36;;0;1;4.16;2.401777;0;0;0;0;1
  58;C;Terminal;36;;0;1;4.16;2.401777;0;0;0;0;1


$$ElmTr2;FID(a:40);OP(a:1);loc_name(a:80);fold_id(p);typ_id(p);ntnum(i);outserv(i);nntap(i);i_auto(i);ntrcn(i);usetp(r);usp_low(r);usp_up(r);t2ldc(i);cgnd_h(i);cgnd_l(i);i_eahv(i);i_ealv(i)
  59;C;UregA;36;311;1;0;10;1;0;1;0.99;1.01;0;0;0;0;0
  60;C;UregB;36;311;1;0;8;1;0;1;0.99;1.01;0;0;0;0;0
  61;C;UregC;36;311;1;0;11;1;0;1;0.99;1.01;0;0;0;0;0
  62;C;XFM-1;36;316;1;0;0;0;0;1;0.99;1.01;0;0;0;0;0


$$ElmXnet;FID(a:40);OP(a:1);loc_name(a:80);fold_id(p);snss(r);rntxn(r);z2tz1(r);snssmin(r);rntxnmin(r);z2tz1min(r);chr_name(a:40);bustp(a:2);pgini(r);qgini(r);phiini(r);usetp(r);outserv(i);Kpf(r);K(r);cmax(r);xd(r);xq(r)
  63;C;External Grid;36;2728.87;0.1;1;8000;0.1;1;;SL;0;0;0;1;0;0;0;1.1;0.2;0.2


$$IntFolder;FID(a:40);OP(a:1);loc_name(a:80);fold_id(p)
  64;C;Layers;179
  65;C;Settings;179
  66;C;Grf;
  67;C;.ComDgs;


$$IntGrf;FID(a:40);OP(a:1);loc_name(a:80);fold_id(p);iCol(i);iVis(i);iLevel(i);rCenterX(r);rCenterY(r);sSymNam(a:80);pDataObj(p);iRot(i);rSizeX(r);rSizeY(r)
  68;C;Graphical Net Object(10);179;-16777216;1;1;153.125;89.6875;d_lin;14;180;1;1
  69;C;Graphical Net Object(11);179;-16777216;1;1;153.125;85.3125;d_lin;15;180;1;1
  70;C;Graphical Net Object(12);179;-16777216;1;1;153.125;80.9375;d_lin;16;180;1;1
  71;C;Graphical Net Object(13);179;-16777216;1;1;153.125;72.1875;d_lin;17;180;1;1
  72;C;Graphical Net Object;179;-16777216;1;1;153.125;94.0625;d_lin;13;180;1;1
  73;C;Graphical Net Object10;179;-16777216;1;1;91.875;65.625;TermStrip;51;0;1.666667;1
  74;C;Graphical Net Object11;179;-16777216;1;1;153.125;65.625;TermStrip;48;0;1.666667;1
  75;C;Graphical Net Object12;179;-16777216;1;1;201.25;65.625;TermStrip;52;0;1.333333;1
  76;C;Graphical Net Object13;179;-16777216;1;1;266.875;65.625;TermStrip;49;0;1.666667;1
  77;C;Graphical Net Object14;179;-16777216;1;1;98.4375;26.25;TermStrip;47;0;1.166667;1
  78;C;Graphical Net Object15;179;-16777216;1;1;153.125;17.5;TermStrip;50;0;1;1
  79;C;Graphical Net Object18;179;-16777216;1;1;140;166.25;d_atr;59;0;1;1
  80;C;Graphical Net Object19;179;-16777216;1;1;153.125;166.25;d_atr;60;0;1;1
  81;C;Graphical Net Object2;179;-16777216;1;1;155.3125;183.75;TermStrip;46;0;2.166667;1
  82;C;Graphical Net Object20;179;-16777216;1;1;166.25;166.25;d_atr;61;0;1;1
  83;C;Graphical Net Object21;179;-16777216;1;1;231.875;105;d_tr2;62;90;1;1
  84;C;Graphical Net Object26;179;-16777216;1;1;181.5625;105;d_lin;10;90;1;1
  85;C;Graphical Net Object27;179;-16777216;1;1;124.6875;105;d_lin;11;270;1;1
  86;C;Graphical Net Object28;179;-16777216;1;1;65.625;105;d_lin;18;270;1;1
  87;C;Graphical Net Object29;179;-16777216;1;1;153.125;107.1875;d_lin;12;180;1;1
  88;C;Graphical Net Object3;179;-16777216;1;1;155.3125;153.125;TermStrip;53;0;2.166667;1
  89;C;Graphical Net Object30;179;-16777216;1;1;153.125;135.625;d_lin;19;0;1;1
  90;C;Graphical Net Object31;179;-16777216;1;1;153.125;41.5625;d_lin;20;0;1;1
  91;C;Graphical Net Object32;179;-16777216;1;1;126.875;52.5;d_lin;21;270;1;1
  92;C;Graphical Net Object33;179;-16777216;1;1;65.625;52.5;d_lin;22;270;1;1
  93;C;Graphical Net Object36;179;-16777216;1;1;179.375;70;d_couple;3;90;1;1
  94;C;Graphical Net Object39;179;-16777216;1;1;153.125;196.875;d_net;63;180;1;1
  95;C;Graphical Net Object4;179;-16777216;1;1;35;118.125;TermStrip;45;0;1;1
  96;C;Graphical Net Object40;179;-16777216;1;1;196.875;43.75;d_load;35;0;1;1
  97;C;Graphical Net Object41;179;-16777216;1;1;39.375;43.75;d_load;28;0;1;1
  98;C;Graphical Net Object42;179;-16777216;1;1;284.375;43.75;d_load;34;0;1;1
  99;C;Graphical Net Object43;179;-16777216;1;1;262.5;96.25;d_load;29;0;1;1
  100;C;Graphical Net Object44;179;-16777216;1;1;96.25;96.25;d_load;30;0;1;1
  101;C;Graphical Net Object45;179;-16777216;1;1;35;96.25;d_load;31;0;1;1
  102;C;Graphical Net Object46;179;-16777216;1;1;96.25;8.75;d_load;32;0;1;1
  103;C;Graphical Net Object47;179;-16777216;1;1;161.875;43.75;d_load;33;0;1;1
  104;C;Graphical Net Object48;179;-16777216;1;1;153.125;96.25;PointTerm;58;90;1;1
  105;C;Graphical Net Object5;179;-16777216;1;1;91.875;118.125;TermStrip;44;0;1.333333;1
  106;C;Graphical Net Object50;179;-16777216;1;1;153.125;91.875;PointTerm;54;90;1;1
  107;C;Graphical Net Object52;179;-16777216;1;1;153.125;87.5;PointTerm;55;90;1;1
  108;C;Graphical Net Object54;179;-16777216;1;1;153.125;83.125;PointTerm;56;90;1;1
  109;C;Graphical Net Object56(1);179;-16777216;1;1;100.625;45.9375;d_lin;8;0;1;1
  110;C;Graphical Net Object56;179;-16777216;1;1;153.125;78.75;PointTerm;57;90;1;1
  111;C;Graphical Net Object58(1);179;-16777216;1;1;236.25;52.5;d_lin;9;90;1;1
  112;C;Graphical Net Object58;179;-16777216;1;1;161.875;87.5;d_load;25;90;1;1
  113;C;Graphical Net Object59;179;-16777216;1;1;161.875;91.875;d_load;24;90;1;1
  114;C;Graphical Net Object6;179;-16777216;1;1;150.9375;118.125;TermStrip;41;0;1.5;1
  115;C;Graphical Net Object60;179;-16777216;1;1;161.875;96.25;d_load;23;90;1;1
  116;C;Graphical Net Object61;179;-16777216;1;1;161.875;83.125;d_load;26;90;1;1
  117;C;Graphical Net Object62;179;-16777216;1;1;161.875;78.75;d_load;27;90;1;1
  118;C;Graphical Net Object63;179;-16777216;1;1;30.625;48.125;d_shunt;38;0;1;1
  119;C;Graphical Net Object64;179;-16777216;1;1;275.625;48.125;d_shunt;39;0;1;1
  120;C;Graphical Net Object7;179;-16777216;1;1;203.4375;118.125;TermStrip;42;0;1.166667;1
  121;C;Graphical Net Object8;179;-16777216;1;1;258.125;118.125;TermStrip;43;0;1.333333;1
  122;C;Graphical Net Object9;179;-16777216;1;1;30.625;65.625;TermStrip;40;0;1.666667;1


$$IntGrfcon;FID(a:40);OP(a:1);loc_name(a:80);fold_id(p);rX:SIZEROW(i);rX:0(r);rX:1(r);rX:2(r);rY:SIZEROW(i);rY:0(r);rY:1(r);rY:2(r);iDatConNr(i)
  123;C;GCO_1;68;2;153.125;153.125;;2;89.6875;91.875;;0
  124;C;GCO_2;68;2;153.125;153.125;;2;89.6875;87.5;;1
  125;C;GCO_1;69;2;153.125;153.125;;2;85.3125;87.5;;0
  126;C;GCO_2;69;2;153.125;153.125;;2;85.3125;83.125;;1
  127;C;GCO_1;70;2;153.125;153.125;;2;80.9375;83.125;;0
  128;C;GCO_2;70;2;153.125;153.125;;2;80.9375;78.75;;1
  129;C;GCO_1;71;2;153.125;153.125;;2;72.1875;78.75;;0
  130;C;GCO_2;71;2;153.125;153.125;;2;72.1875;65.625;;1
  131;C;GCO_1;72;2;153.125;153.125;;2;94.0625;96.25;;0
  132;C;GCO_2;72;2;153.125;153.125;;2;94.0625;91.875;;1
  133;C;GCO_1;79;2;140;140;;2;170.625;183.75;;0
  134;C;GCO_2;79;2;140;140;;2;161.875;153.125;;1
  135;C;GCO_1;80;2;153.125;153.125;;2;170.625;183.75;;0
  136;C;GCO_2;80;2;153.125;153.125;;2;161.875;153.125;;1
  137;C;GCO_1;82;2;166.25;166.25;;2;170.625;183.75;;0
  138;C;GCO_2;82;2;166.25;166.25;;2;161.875;153.125;;1
  139;C;GCO_1;83;3;227.5;210;210;3;105;105;118.125;0
  140;C;GCO_2;83;3;236.25;253.75;253.75;3;105;105;118.125;1
  141;C;GCO_1;84;3;181.5625;161.875;161.875;3;105;105;118.125;0
  142;C;GCO_2;84;3;181.5625;201.25;201.25;3;105;105;118.125;1
  143;C;GCO_1;85;3;124.6875;144.375;144.375;3;105;105;118.125;0
  144;C;GCO_2;85;3;124.6875;105;105;3;105;105;118.125;1
  145;C;GCO_1;86;3;65.625;87.5;87.5;3;105;105;118.125;0
  146;C;GCO_2;86;3;65.625;43.75;43.75;3;105;105;118.125;1
  147;C;GCO_1;87;2;153.125;153.125;;2;107.1875;118.125;;0
  148;C;GCO_2;87;2;153.125;153.125;;2;107.1875;96.25;;1
  149;C;GCO_1;89;2;153.125;153.125;;2;135.625;153.125;;0
  150;C;GCO_2;89;2;153.125;153.125;;2;135.625;118.125;;1
  151;C;GCO_1;90;2;153.125;153.125;;2;41.5625;65.625;;0
  152;C;GCO_2;90;2;153.125;153.125;;2;41.5625;17.5;;1
  153;C;GCO_1;91;3;126.875;144.375;144.375;3;52.5;52.5;65.625;0
  154;C;GCO_2;91;3;126.875;109.375;109.375;3;52.5;52.5;65.625;1
  155;C;GCO_1;92;3;65.625;83.125;83.125;3;52.5;52.5;65.625;0
  156;C;GCO_2;92;3;65.625;48.125;48.125;3;52.5;52.5;65.625;1
  157;C;GCO_1;93;3;177.1875;166.25;166.25;3;70;70;65.625;0
  158;C;GCO_2;93;3;181.5625;192.5;192.5;3;70;70;65.625;1
  159;C;GCO_1;94;2;153.125;153.125;;2;192.5;183.75;;0
  160;C;GCO_1;96;2;196.875;196.875;;2;48.125;65.625;;0
  161;C;GCO_1;97;2;39.375;39.375;;2;48.125;65.625;;0
  162;C;GCO_1;98;2;284.375;284.375;;2;48.125;65.625;;0
  163;C;GCO_1;99;2;262.5;262.5;;2;100.625;118.125;;0
  164;C;GCO_1;100;2;96.25;96.25;;2;100.625;118.125;;0
  165;C;GCO_1;101;2;35;35;;2;100.625;118.125;;0
  166;C;GCO_1;102;2;96.25;96.25;;2;13.125;26.25;;0
  167;C;GCO_1;103;2;161.875;161.875;;2;48.125;65.625;;0
  168;C;GCO_1;109;2;100.625;100.625;;2;45.9375;65.625;;0
  169;C;GCO_2;109;2;100.625;100.625;;2;45.9375;26.25;;1
  170;C;GCO_1;111;3;236.25;214.375;214.375;3;52.5;52.5;65.625;0
  171;C;GCO_2;111;3;236.25;258.125;258.125;3;52.5;52.5;65.625;1
  172;C;GCO_1;112;2;157.5;153.125;;2;87.5;87.5;;0
  173;C;GCO_1;113;2;157.5;153.125;;2;91.875;91.875;;0
  174;C;GCO_1;115;2;157.5;153.125;;2;96.25;96.25;;0
  175;C;GCO_1;116;2;157.5;153.125;;2;83.125;83.125;;0
  176;C;GCO_1;117;2;157.5;153.125;;2;78.75;78.75;;0
  177;C;GCO_1;118;2;30.625;30.625;;2;52.5;65.625;;0
  178;C;GCO_1;119;2;275.625;275.625;;2;52.5;65.625;;0


$$IntGrfnet;FID(a:40);OP(a:1);loc_name(a:80);fold_id(p);snap_on(i);ortho_on(i);pDataFolder(p)
  179;C;Grid;;1;1;36


$$IntRef;FID(a:40);OP(a:1);loc_name(a:80);fold_id(p);obj_id(p)
  180;C;Ref0;37;36


$$StaCubic;FID(a:40);OP(a:1);loc_name(a:80);fold_id(p);obj_bus(i);obj_id(p);it2p1(i);it2p2(i);it2p3(i);cPhInfo(a)
  181;C;Cub_1;40;1;22;0;1;2;SPN
  182;C;Cub_2;40;0;28;0;1;2;SP
  183;C;Cub_3;40;0;38;0;1;2;SP
  184;C;Cub_1;41;0;10;0;1;2;abcN
  185;C;Cub_2;41;0;11;2;1;2;cbN
  186;C;Cub_3;41;0;12;0;1;2;abcN
  187;C;Cub_4;41;1;19;0;1;2;abcN
  188;C;Cub_1;42;0;62;0;1;2;abcN
  189;C;Cub_2;42;1;10;0;1;2;abcN
  190;C;Cub_1;43;1;62;0;1;2;abcN
  191;C;Cub_2;43;0;29;0;1;2;abc
  192;C;Cub_1;44;1;11;0;1;2;DP1DP2N
  193;C;Cub_2;44;0;18;0;1;2;DP1DP2N
  194;C;Cub_3;44;0;30;1;1;2;DP2
  195;C;Cub_1;45;1;18;0;1;2;DP1DP2N
  196;C;Cub_2;45;0;31;0;1;2;DP1DP2
  197;C;Cub_1;46;0;59;0;3;2;aN
  198;C;Cub_2;46;0;60;1;3;2;bN
  199;C;Cub_3;46;0;61;2;3;2;cN
  200;C;Cub_4;46;0;63;0;1;2;abcN
  201;C;Cub_3;47;0;32;0;1;2;SP
  202;C;Cub_4;47;1;8;0;1;2;SP
  203;C;Cub_1;48;1;17;0;1;2;abcN
  204;C;Cub_2;48;0;20;0;1;2;abcN
  205;C;Cub_3;48;0;21;0;2;2;acN
  206;C;Cub_4;48;0;3;0;1;2;abcN
  207;C;Cub_5;48;0;33;0;1;2;abc
  208;C;Cub_3;49;0;34;0;1;2;abc
  209;C;Cub_4;49;0;39;0;1;2;abc
  210;C;Cub_5;49;1;9;0;1;2;abc
  211;C;Cub_1;50;1;20;0;1;2;abcN
  212;C;Cub_3;51;1;21;0;1;2;DP1DP2N
  213;C;Cub_4;51;0;22;1;1;2;DP2N
  214;C;Cub_5;51;0;8;0;1;2;DP1
  215;C;Cub_2;52;1;3;0;1;2;abcN
  216;C;Cub_4;52;0;35;2;0;2;ca
  217;C;Cub_5;52;0;9;0;1;2;abc
  218;C;Cub_1;53;1;59;0;3;2;aN
  219;C;Cub_2;53;1;60;1;3;2;bN
  220;C;Cub_3;53;1;61;2;3;2;cN
  221;C;Cub_4;53;0;19;0;1;2;abcN
  222;C;Cub_0;54;0;14;0;1;2;abcN
  223;C;Cub_1;54;1;13;0;1;2;abcN
  224;C;Cub_2;54;0;24;0;1;2;abc
  225;C;Cub_0;55;0;15;0;1;2;abcN
  226;C;Cub_1;55;1;14;0;1;2;abcN
  227;C;Cub_2;55;0;25;0;1;2;abc
  228;C;Cub_0;56;0;16;0;1;2;abcN
  229;C;Cub_1;56;1;15;0;1;2;abcN
  230;C;Cub_2;56;0;26;0;1;2;abc
  231;C;Cub_0;57;0;17;0;1;2;abcN
  232;C;Cub_1;57;1;16;0;1;2;abcN
  233;C;Cub_2;57;0;27;0;1;2;abc
  234;C;Cub_0;58;0;13;0;1;2;abcN
  235;C;Cub_1;58;1;12;0;1;2;abcN
  236;C;Cub_2;58;0;23;0;1;2;abc


$$StaSwitch;FID(a:40);OP(a:1);loc_name(a:80);fold_id(p);on_off(i);typ_id(p);aUsage(a)
  237;C;Switch;181;1;;cbk
  238;C;Switch;182;1;;cbk
  239;C;Switch;183;1;;cbk
  240;C;Switch;184;1;;cbk
  241;C;Switch;185;1;;cbk
  242;C;Switch;186;1;;cbk
  243;C;Switch;187;1;;cbk
  244;C;Switch;188;1;;cbk
  245;C;Switch;189;1;;cbk
  246;C;Switch;190;1;;cbk
  247;C;Switch;191;1;;cbk
  248;C;Switch;192;1;;cbk
  249;C;Switch;193;1;;cbk
  250;C;Switch;194;1;;cbk
  251;C;Switch;195;1;;cbk
  252;C;Switch;196;1;;cbk
  253;C;Switch;197;1;;cbk
  254;C;Switch;198;1;;cbk
  255;C;Switch;199;1;;cbk
  256;C;Switch;200;1;;cbk
  257;C;Switch;201;1;;cbk
  258;C;Switch;202;1;;cbk
  259;C;Switch;203;1;;cbk
  260;C;Switch;204;1;;cbk
  261;C;Switch;205;1;;cbk
  262;C;Switch;207;1;;cbk
  263;C;Switch;208;1;;cbk
  264;C;Switch;209;1;;cbk
  265;C;Switch;210;1;;cbk
  266;C;Switch;211;1;;cbk
  267;C;Switch;212;1;;cbk
  268;C;Switch;213;1;;cbk
  269;C;Switch;214;1;;cbk
  270;C;Switch;216;1;;cbk
  271;C;Switch;217;1;;cbk
  272;C;Switch;218;1;;cbk
  273;C;Switch;219;1;;cbk
  274;C;Switch;220;1;;cbk
  275;C;Switch;221;1;;cbk


$$TypBar;FID(a:40);OP(a:1);loc_name(a:80);fold_id(p);uknom(r);Ithlim(r);Tkr(r);Iplim(r)
  276;C;BusBar115kV;;115;0;1;0
  277;C;Busbar0.48kV;;0.48;0;1;0
  278;C;Busbar4.16kV;;4.16;0;1;0


$$TypCab;FID(a:40);OP(a:1);loc_name(a:80);fold_id(p);uline(r);rpha(r);As(r);diaCon(r);diaTube(r);diaCab(r);thSht(r);thIns:SIZEROW(i);thIns:0(r);thIns:1(r);thIns:2(r);crho:SIZEROW(i);crho:0(r);crho:1(r);crho:2(r);Cf:SIZEROW(i);Cf:0(r);Cf:1(r);Cf:2(r);cepsr:SIZEROW(i);cepsr:0(r);cepsr:1(r);cepsr:2(r);ctand:SIZEROW(i);ctand:0(r);ctand:1(r);ctand:2(r);my:SIZEROW(i);my:0(r);my:1(r);my:2(r);ks(r);kp(r);alpha:SIZEROW(i);alpha:0(r);alpha:1(r);alpha:2(r);tmax(r);tcrit(r);Ithr(r);tshc(r);tmax_screen(r);has_arm(i);has_ins2(i);has_ins3(i);has_scco(i);has_scio(i);has_sht(i);iShtScreen(i);cHasEl:SIZEROW(i);cHasEl:0(i);cHasEl:1(i);cHasEl:2(i);cHasIns:SIZEROW(i);cHasIns:0(i);cHasIns:1(i);cHasIns:2(i);cHasSc:SIZEROW(i);cHasSc:0(i);cHasSc:1(i);cThEl:SIZEROW(i);cThEl:0(r);cThEl:1(r);cThEl:2(r);thArm(r);thSc:SIZEROW(i);thSc:0(r);thSc:1(r);rhoSc:SIZEROW(i);rhoSc:0(r);rhoSc:1(r);mySc:SIZEROW(i);mySc:0(r);mySc:1(r);epsrSc:SIZEROW(i);epsrSc:0(r);epsrSc:1(r);materialCond:SIZEROW(i);materialCond:0(r);materialCond:1(r);materialCond:2(r);materialIns:SIZEROW(i);materialIns:0(r);materialIns:1(r);materialIns:2(r);frmArmourTyp(i);frmScreenTyp(i);layf(r);manuf(a:40)
  279;C;1/0 AA TS;;15;0.528299;0;8.253382;0;26.924;0.762;3;6.287309;2.286;1;3;2.8264;2.84;2.84;3;100;100;100;3;2.3;8;3;3;0;0.1;0.02;3;1;1;1;1;1;3;0.00403;0.00403;0.00403;80;85;0;1;70;0;1;1;0;0;1;0;3;1;1;0;3;1;1;0;2;0;0;3;4.126691;0.762;1;1;2;1;1;2;1000000;1000000;2;1;1;2;3;3;3;2;5;0;3;0;12;0;0;0;0;
  280;C;1/0 Cu;;15;0.322261;0;8.253382;0;21.082;0.762;3;6.414309;2.247;1;3;1.7241;2.84;2.84;3;100;100;100;3;2.3;8;3;3;0;0.1;0.02;3;1;1;1;1;1;3;0.00393;0.00403;0.00403;80;85;0;1;70;0;1;1;0;0;0;0;3;1;0;0;3;1;0;0;2;0;0;3;4.126691;0.762;1;1;2;1;1;2;1000000;1000000;2;1;1;2;3;3;3;1;5;0;3;0;12;0;0;0;0;
  281;C;250 AA CN;;15;0.222551;0;12.71618;0;30.54451;0.159258;3;7.103906;1.651;1;3;2.8264;1.7241;2.84;3;100;99.44012;100;3;2.3;2.5;3;3;0;0;0.02;3;1;0.999993;1;1;1;3;0.00403;0.00393;0.00403;80;85;0;1;70;0;1;1;0;0;1;0;3;1;1;0;3;1;1;0;2;0;0;3;6.35809;0.159258;1;1;2;1;1;2;1000000;1000000;2;1;1;2;3;3;3;2;6;0;3;0;14;0;0;0;0;


$$TypCabsys;FID(a:40);OP(a:1);loc_name(a:80);fold_id(p);systp(i);frnom(r);frnomdc(r);iopt_bur(a:6);nlcir(i);cnphas(i);pcab_c:SIZEROW(i);pcab_c:0(p);nphas:SIZEROW(i);nphas:0(r);xy_c:SIZEROW(i);xy_c:SIZECOL(i);xy_c:0:0(r);xy_c:0:1(r);xy_c:0:2(r);xy_c:0:3(r);xy_c:0:4(r);xy_c:0:5(r);cGearth(r);rhoEarth(r);dInom:SIZEROW(i);dInom:0(r);bond:SIZEROW(i);bond:0(r);cFormat:SIZEROW(i);cFormat:0(r);cPhsDist:SIZEROW(i);cPhsDist:0(r);cPtX:SIZEROW(i);cPtX:0(r);cPtY:SIZEROW(i);cPtY:0(r);circPosInput(i);systpCct:SIZEROW(i);systpCct:0(r);red:SIZEROW(i);red:0(r);itranspo(i);R_c:SIZEROW(i);X_c:SIZEROW(i);G_c:SIZEROW(i);B_c:SIZEROW(i);C_c:SIZEROW(i);R_c0:SIZEROW(i);X_c0:SIZEROW(i);G_c0:SIZEROW(i);B_c0:SIZEROW(i);C_c0:SIZEROW(i);R_c1:SIZEROW(i);X_c1:SIZEROW(i);G_c1:SIZEROW(i);B_c1:SIZEROW(i);C_c1:SIZEROW(i)
  282;C;606;;0;60;0.01;gnd;1;3;1;281;1;3;1;6;-0.1524;0;0.1524;0.60959998049280;0.60959998049280;0.60959998049280;100;100;1;0.26;1;0;1;0;1;0.1524;1;0;1;0.60959998049280;0;1;0;1;0;1;0;0;0;0;0;0;0;0;0;0;0;0;0;0;0
  283;C;606val;;0;60;0.01;gnd;1;3;1;281;1;3;1;6;-0.1524;0;0.1524;0.60959998049280;0.60959998049280;0.60959998049280;100;100;1;0.26;1;0;1;0;1;0;1;0;1;0;0;0;;1;1;1;0;0;0;0;0;0;0;0;0;0;0;0;0;0;0
  284;C;607 A;;0;60;0.01;gnd;1;3;1;279;1;1;1;6;0;0;0;0.60959998049280;0;0;100;100;1;0.165;1;0;1;0;1;0;1;-0.01270000975359;1;0.60959998049280;0;1;0;1;1;1;0;0;0;0;0;0;0;0;0;0;0;0;0;0;0
  285;C;607 Aval;;0;60;0.01;gnd;1;3;1;279;1;1;1;6;-0.02;0;0;0.91439997073920;0;0;100;100;1;0.165;1;0;1;0;1;0;1;0;1;0;0;0;;1;1;1;0;0;0;0;0;0;0;0;0;0;0;0;0;0;0


$$TypCon;FID(a:40);OP(a:1);loc_name(a:80);fold_id(p);sline(r);ncsub(i);dsubc(r);rpha(r);diaco(r);erpha(r);diatub(r);iskin(i);tmax(r);uline(r);iopt_inp(a:6);alpha(r);rpha_tmax(r);mlei(a:20);iModel(i)
  286;C;556.5 ACSR;;0.73;1;0.1;0.115512;23.5458;9.54024;16;0;80;4.16;tmx;0;0.115512;Al;0
  287;C;n1 ACSR;;0.23;1;0.1;0.695935;10.1092;1.359408;16;0;80;4.16;tmx;0;0.695935;As;0
  288;C;n4 ACSR;;0.34;1;0.1;0.367851;14.3002;2.481072;16;0;80;4.16;tmx;0;0.367852;Al;0


$$TypLne;FID(a:40);OP(a:1);loc_name(a:80);fold_id(p);uline(r);sline(r);InomAir(r);cohl_(i);rline(r);xline(r);rline0(r);xline0(r);Ithr(r);tmax(r);rtemp(r);systp(i);nlnph(i);nneutral(i);frnom(r);mlei(a:4);bline(r);bline0(r)
  289;C;Cable Type Al-VPE 4x185sm 0.6/1kV;;1;0.34;0.355;0;0.164042;0.068897;0.656168;0.275590;17.4;90;250;0;3;1;60;Al;187.0079;111.5486
  290;C;OHL Type SP LV;;1;0.8;0.8;1;0.492126;0.492126;0;0;0;80;80;0;1;1;60;Cu;0;0


$$TypLod;FID(a:40);OP(a:1);loc_name(a:80);fold_id(p);systp(i);phtech(i);aP(r);bP(r);kpu0(r);kpu1(r);kpu(r);aQ(r);bQ(r);kqu0(r);kqu1(r);kqu(r)
  291;C;LodDcPQ;;0;0;1;0;0;1;2;1;0;0;1;2
  292;C;LodPEcI;;0;9;0;1;0;1;2;0;1;0;1;2
  293;C;LodPEcPQ;;0;9;1;0;0;1;2;1;0;0;1;2
  294;C;LodPEcZ;;0;9;0;0;0;1;2;0;0;0;1;2
  295;C;LodPNcI;;0;9;0;1;0;1;2;0;1;0;1;2
  296;C;LodPNcPQ;;0;9;1;0;0;1;2;1;0;0;1;2
  297;C;LodPNcZ;;0;9;0;0;0;1;2;0;0;0;1;2
  298;C;LodPPcI;;0;7;0;1;0;1;2;0;1;0;1;2
  299;C;LodPPcZ;;0;7;0;0;0;1;2;0;0;0;1;2
  300;C;LodYEcPQ;;0;2;1;0;0;1;2;1;0;0;1;2
  301;C;LodYNcPQ;;0;2;1;0;0;1;2;1;0;0;1;2


$$TypSym;FID(a:40);OP(a:1);loc_name(a:80);fold_id(p);sgn(r);ugn(r);cosn(r);xd(r);xq(r);xdsss(r);rstr(r);xdsat(r);satur(i);nphase(i);nslty(i);x0sy(r);r0sy(r);x2sy(r);r2sy(r);iopt_data(i);xds(r);xqs(r);xl(r);xdss(r);xqss(r);xrlq(r);tds(r);tqs(r);tdss(r);tqss(r);xstr(r)
  302;C;3.5 MVA DG;;3.5;6.6;0.8;1.5;0.75;0.168;0.0504;1.2;0;3;2;0.1;0;0.2;0;1;0.256;0.3;0.1;0.168;0.184;0;0.53;0;0.03;0.03;0.2


$$TypTow;FID(a:40);OP(a:1);loc_name(a:80);fold_id(p);frnom(r);nlear(i);nlcir(i);gearth(r);i_mode(i);pcond_e:SIZEROW(i);pcond_e:0(p);nphas:SIZEROW(i);nphas:0(r);nphas:1(r);ktrto:SIZEROW(i);ktrto:0(r);ktrto:1(r);pcond_c:SIZEROW(i);pcond_c:0(p);pcond_c:1(p);xy_e:SIZEROW(i);xy_e:SIZECOL(i);xy_e:0:0(r);xy_e:0:1(r);xy_c:SIZEROW(i);xy_c:SIZECOL(i);xy_c:0:0(r);xy_c:0:1(r);xy_c:0:2(r);xy_c:0:3(r);xy_c:0:4(r);xy_c:0:5(r);xy_c:1:0(r);xy_c:1:1(r);xy_c:1:2(r);xy_c:1:3(r);xy_c:1:4(r);xy_c:1:5(r);R_c0:SIZEROW(i);R_c0:SIZECOL(i);R_c0:0:0(r);R_c0:0:1(r);R_c0:1:0(r);R_c0:1:1(r);X_c0:SIZEROW(i);X_c0:SIZECOL(i);X_c0:0:0(r);X_c0:0:1(r);X_c0:1:0(r);X_c0:1:1(r);R_c1:SIZEROW(i);R_c1:SIZECOL(i);R_c1:0:0(r);R_c1:0:1(r);R_c1:1:0(r);R_c1:1:1(r);X_c1:SIZEROW(i);X_c1:SIZECOL(i);X_c1:0:0(r);X_c1:0:1(r);X_c1:1:0(r);X_c1:1:1(r);B_c0:SIZEROW(i);B_c0:SIZECOL(i);B_c0:0:0(r);B_c0:0:1(r);B_c0:1:0(r);B_c0:1:1(r);B_c1:SIZEROW(i);B_c1:SIZECOL(i);B_c1:0:0(r);B_c1:0:1(r);B_c1:1:0(r);B_c1:1:1(r);G_c0:SIZEROW(i);G_c0:SIZECOL(i);G_c0:0:0(r);G_c0:0:1(r);G_c0:1:0(r);G_c0:1:1(r);G_c1:SIZEROW(i);G_c1:SIZECOL(i);G_c1:0:0(r);G_c1:0:1(r);G_c1:1:0(r);G_c1:1:1(r)
  303;C;LineConfig601;;60;0;2;100;0;0;;2;3;1;2;0;0;2;286;288;0;0;;;2;6;-0.3048;-1.0668;1.0668;8.5344;8.5344;8.5344;0.1523999951232;0;0;7.31519976591361;0;0;2;2;0.28938588009358;0;0;0;2;2;1.84028590684138;0;0;0;2;2;0.11551324004023;0;0;0.42598363231759;2;2;0.37092625047155;0;0;0.96207526739358;2;2;2.05281997027578;0;0;0;2;2;4.53810766818396;0;0;3.34042442918459;2;2;0;0;0;0;2;2;1.11022302462516e-16;0;0;0
  304;C;LineConfig601val;;60;1;1;100;0;1;288;1;3;;1;0;;1;286;;1;2;0.1523999951232;7.31519976591361;1;6;-0.3048;-1.0668;1.0668;8.5344;8.5344;8.5344;;;;;;;1;1;0.40533051259525;;;;1;1;1.18687004553522;;;;1;1;0.11555656375723;;;;1;1;0.37082840013407;;;;1;1;2.05281997027578;;;;1;1;4.53810766818396;;;;1;1;0;;;;1;1;5.55111512312578e-17;;;
  305;C;LineConfig602;;60;0;2;100;0;0;;2;3;1;2;0;0;2;288;288;0;0;;;2;6;-0.3048;1.0668;-1.0668;8.5344;8.5344;8.5344;0.1523999951232;0;0;7.31519976591361;0;0;2;2;0.54172473655225;0;0;0;2;2;1.94183434292389;0;0;0;2;2;0.36785209649889;0;0;0.42598363231759;2;2;0.47247468655407;0;0;0.96207526739358;2;2;1.95681658172144;0;0;0;2;2;4.09021015609093;0;0;3.31282137919026;2;2;0;0;0;0;2;2;2.77555756156289e-17;0;0;0
  306;C;LineConfig602val;;60;1;1;100;0;1;288;1;3;;1;0;;1;288;;1;2;0.1523999951232;7.31519976591361;1;6;-0.3048;1.0668;-1.0668;8.5344;8.5344;8.5344;;;;;;;1;1;0.65766936905392;;;;1;1;1.28841848161774;;;;1;1;0.3678954202159;;;;1;1;0.47237683621659;;;;1;1;1.95681658172144;;;;1;1;4.09021015609093;;;;1;1;0;;;;1;1;-1.94289029309402e-16;;;
  307;C;LineConfig603-604;;60;0;2;100;0;0;;2;2;1;2;0;0;2;287;287;0;0;;;2;6;-1.0668;1.0668;0;8.5344;8.5344;0;0.1523999951232;0;0;7.31519976591361;0;0;2;2;0.81185083721291;0;0;0;2;2;1.46042892895006;0;0;0;2;2;0.69593637355792;0;0;0.75406759451966;2;2;0.55481892785723;0;0;1.00743795711989;2;2;2.35530659170663;0;0;0;2;2;3.47439096275939;0;0;3.01809354455243;2;2;0;0;0;0;2;2;0;0;0;0
  308;C;LineConfig603-604val;;60;1;1;100;0;1;287;1;2;;1;0;;1;287;;1;2;0.1523999951232;7.31519976591361;1;6;-1.0668;1.0668;0;8.5344;8.5344;0;;;;;;;1;1;0.95217258189971;;;;1;1;1.12718953158112;;;;1;1;0.69595699403054;;;;1;1;0.55479137763854;;;;1;1;2.35530659170663;;;;1;1;3.47439096275939;;;;1;1;0;;;;1;1;0;;;
  309;C;LineConfig605;;60;0;2;100;0;0;;2;1;1;2;0;0;2;287;287;0;0;;;2;6;0;0;0;8.8392;0;0;0.1523999951232;0;0;7.31519976591361;0;0;2;2;0;0;0;0;2;2;0;0;0;0;2;2;0.75385037546251;0.05802291939466;0.05802291939466;0.75406759451966;2;2;1.00767035817922;0.47772943405107;0.47772943405107;1.00743795711989;2;2;0;0;0;0;2;2;2.8100926148869;-0.83060209656515;-0.83060209656515;2.87681161082885;2;2;0;0;0;0;2;2;0;0;0;0
  310;C;LineConfig605val;;60;1;1;100;0;1;287;1;1;;1;0;;1;287;;1;2;0.1523999951232;7.31519976591361;1;6;0;0;0;8.8392;0;0;;;;;;;1;1;0;;;;1;1;0;;;;1;1;0.82565606272883;;;;1;1;0.83821832402917;;;;1;1;0;;;;1;1;2.8100926148869;;;;1;1;0;;;;1;1;0;;;


$$TypTr2;FID(a:40);OP(a:1);loc_name(a:80);fold_id(p);nt2ph(i);strn(r);frnom(r);utrn_h(r);utrn_l(r);uktr(r);pcutr(r);uk0tr(r);ur0tr(r);tr2cn_h(a:4);tr2cn_l(a:4);nt2ag(r);curmg(r);pfe(r);zx0hl_n(r);itapch(i);tap_side(i);dutap(r);phitr(r);nntap0(i);ntpmn(i);ntpmx(i);manuf(a:40)
  311;C;AutoTRF1ph;;2;1.667;60;2.401777;2.401777;0;0;3;0;D;D;0;0;0;100;1;1;0.625;0;0;-16;16;
  312;C;SubstationTyp3ph;;3;5;60;115;4.16;8.062258;50;8.062258;1;D;YN;1;0;0;100;1;1;0.625;0;0;-16;16;
  313;C;Transformer Type 4.16/0.24 SP;;2;0.5;60;2.4;0.24;3;0;3;0;D;YN;0;0;0;100;1;0;0;0;0;0;0;
  314;C;Transformer Type 4.8/0.415;;3;1;60;4.8;0.415;6;0;6;0;D;YN;5;0;0;100;1;0;0;0;0;0;0;
  315;C;Transformer Type Gen Set;;3;3.6;50;6.6;4.16;6;0;600;0;YN;D;7;0;0;100;1;0;2.5;0;0;-2;2;
  316;C;XFM-1Typ;;3;0.5;60;4.16;0.48;2.282542;5.5;2.282542;1.1;YN;YN;0;0;0;100;0;0;0;0;0;0;0;
